malab_file/matpower_switching_station.m
function mpc = matpower_switching_station
%Please see CASEFORMAT for details on the case file format.
% MATPOWER Case Format : Version 2
mpc.version = '2';
%-----  Power Flow Data  -----%%
% system MVA base
mpc.baseMVA = 1;
% bus data
%bus_i type Pd	Qd Gs Bs area Vm Va baseKV zone	Vmax Vmin
mpc.bus = [
1	1	0	0	0	0	1	1	0	20	1	1.1	0.9
2	1	0.63	0.189	0	0	1	1	0	20	1	1.1	0.9
3	1	0.4	0.12	0	0	1	1	0	20	1	1.1	0.9
4	1	0.4	0.12	0	0	1	1	0	20	1	1.1	0.9
5	1	0.63	0.189	0	0	1	1	0	20	1	1.1	0.9
6	1	0.63	0.189	0	0	1	1	0	20	1	1.1	0.9
7	1	0.63	0.189	0	0	1	1	0	20	1	1.1	0.9
8	1	0.63	0.189	0	0	1	1	0	20	1	1.1	0.9
9	1	0.63	0.189	0	0	1	1	0	20	1	1.1	0.9
10	1	0.4	0.12	0	0	1	1	0	20	1	1.1	0.9
11	1	1	0.3	0	0	1	1	0	20	1	1.1	0.9
12	1	0.63	0.189	0	0	1	1	0	20	1	1.1	0.9
13	1	0.63	0.189	0	0	1	1	0	20	1	1.1	0.9
14	1	1	0.3	0	0	1	1	0	20	1	1.1	0.9
15	1	0.63	0.189	0	0	1	1	0	20	1	1.1	0.9
16	1	0.63	0.189	0	0	1	1	0	20	1	1.1	0.9
17	1	0.63	0.189	0	0	1	1	0	20	1	1.1	0.9
18	1	0.4	0.12	0	0	1	1	0	20	1	1.1	0.9
19	1	0.63	0.189	0	0	1	1	0	20	1	1.1	0.9
20	1	0.4	0.12	0	0	1	1	0	20	1	1.1	0.9
21	1	1	0.3	0	0	1	1	0	20	1	1.1	0.9
22	1	0.63	0.189	0	0	1	1	0	20	1	1.1	0.9
23	1	0.63	0.189	0	0	1	1	0	20	1	1.1	0.9
24	1	0.63	0.189	0	0	1	1	0	20	1	1.1	0.9
25	1	0.63	0.189	0	0	1	1	0	20	1	1.1	0.9
26	1	0.4	0.12	0	0	1	1	0	20	1	1.1	0.9
27	1	1	0.3	0	0	1	1	0	20	1	1.1	0.9
28	1	0.63	0.189	0	0	1	1	0	20	1	1.1	0.9
29	1	0.63	0.189	0	0	1	1	0	20	1	1.1	0.9
30	1	0.4	0.12	0	0	1	1	0	20	1	1.1	0.9
31	1	0.63	0.189	0	0	1	1	0	20	1	1.1	0.9
32	1	0.63	0.189	0	0	1	1	0	20	1	1.1	0.9
33	1	0.63	0.189	0	0	1	1	0	20	1	1.1	0.9
34	1	0.63	0.189	0	0	1	1	0	20	1	1.1	0.9
35	1	0	0	0	0	1	1	0	20	1	1.1	0.9
36	3	0	0	0	0	1	1	0	132	1	1.1	0.9
];
%% generator data
% bus Pg Qg Qmax Qmin Vg mBase status Pmax Pmin Pc1 Pc2 Qc1min Qc1max Qc2min Qc2max ramp_agc ramp_10 ramp_30 ramp_q apf
mpc.gen = [
36 0 0 1000 -1000 1.0 1 1 1000 0 0 0 0 0 0 0 0 0 0 0 0];
%% branch data
%fbus tbus	r x b rA rB rC rat ang status angmin angmax
mpc.branch = [
1	2	2.18E-04	1.14E-04	0	10.3923	10.3923	10.3923	0	0	1	-360	360
2	3	1.43E-04	7.51E-05	0	10.3923	10.3923	10.3923	0	0	1	-360	360
3	4	2.60E-04	1.36E-04	0	10.3923	10.3923	10.3923	0	0	1	-360	360
4	5	2.22E-04	1.16E-04	0	10.3923	10.3923	10.3923	0	0	1	-360	360
5	6	1.16E-04	6.06E-05	0	10.3923	10.3923	10.3923	0	0	1	-360	360
6	7	1.80E-04	9.41E-05	0	10.3923	10.3923	10.3923	0	0	1	-360	360
7	8	8.00E-05	4.19E-05	0	10.3923	10.3923	10.3923	0	0	1	-360	360
8	9	1.59E-04	8.31E-05	0	10.3923	10.3923	10.3923	0	0	1	-360	360
9	10	8.49E-05	4.45E-05	0	10.3923	10.3923	10.3923	0	0	1	-360	360
10	11	2.80E-04	1.47E-04	0	10.3923	10.3923	10.3923	0	0	1	-360	360
11	12	2.17E-04	1.14E-04	0	10.3923	10.3923	10.3923	0	0	1	-360	360
12	13	1.47E-04	7.70E-05	0	10.3923	10.3923	10.3923	0	0	1	-360	360
1	14	2.09E-04	1.10E-04	0	10.3923	10.3923	10.3923	0	0	1	-360	360
14	15	2.01E-04	1.05E-04	0	10.3923	10.3923	10.3923	0	0	1	-360	360
15	16	1.65E-04	8.65E-05	0	10.3923	10.3923	10.3923	0	0	1	-360	360
16	17	2.17E-04	1.13E-04	0	10.3923	10.3923	10.3923	0	0	1	-360	360
17	18	1.66E-04	8.69E-05	0	10.3923	10.3923	10.3923	0	0	1	-360	360
18	19	2.44E-04	1.28E-04	0	10.3923	10.3923	10.3923	0	0	1	-360	360
19	20	2.11E-04	1.11E-04	0	10.3923	10.3923	10.3923	0	0	1	-360	360
20	21	1.66E-04	8.67E-05	0	10.3923	10.3923	10.3923	0	0	1	-360	360
21	22	2.46E-04	1.29E-04	0	10.3923	10.3923	10.3923	0	0	1	-360	360
22	23	1.10E-04	5.78E-05	0	10.3923	10.3923	10.3923	0	0	1	-360	360
1	24	2.34E-04	1.23E-04	0	10.3923	10.3923	10.3923	0	0	1	-360	360
24	25	1.19E-04	6.24E-05	0	10.3923	10.3923	10.3923	0	0	1	-360	360
25	26	2.81E-04	1.47E-04	0	10.3923	10.3923	10.3923	0	0	1	-360	360
26	27	2.43E-04	1.27E-04	0	10.3923	10.3923	10.3923	0	0	1	-360	360
27	28	1.29E-04	6.74E-05	0	10.3923	10.3923	10.3923	0	0	1	-360	360
28	29	2.30E-04	1.21E-04	0	10.3923	10.3923	10.3923	0	0	1	-360	360
29	30	1.62E-04	8.47E-05	0	10.3923	10.3923	10.3923	0	0	1	-360	360
30	31	1.38E-04	7.23E-05	0	10.3923	10.3923	10.3923	0	0	1	-360	360
31	32	2.39E-04	1.25E-04	0	10.3923	10.3923	10.3923	0	0	1	-360	360
32	33	1.58E-04	8.28E-05	0	10.3923	10.3923	10.3923	0	0	1	-360	360
33	34	2.76E-04	1.45E-04	0	10.3923	10.3923	10.3923	0	0	1	-360	360
13	35	1.99E-04	1.04E-04	0	10.3923	10.3923	10.3923	0	0	0	-360	360
23	35	1.08E-04	5.65E-05	0	10.3923	10.3923	10.3923	0	0	0	-360	360
34	35	1.29E-04	6.78E-05	0	10.3923	10.3923	10.3923	0	0	0	-360	360
1	35	2.19E-04	1.15E-04	0	10.3923	10.3923	10.3923	0	0	1	-360	360
36	1	3.75E-05	0.00125	0	80	80	80	1	0	1	-360	360
27	17	8.44E-02	4.44E-02	0	10.3923	10.3923	10.3923	0	0	1	-360	360
28	18	8.44E-02	4.44E-02	0	10.3923	10.3923	10.3923	0	0	1	-360	360
29	19	8.44E-02	4.44E-02	0	10.3923	10.3923	10.3923	0	0	1	-360	360
30	20	8.44E-02	4.44E-02	0	10.3923	10.3923	10.3923	0	0	1	-360	360
31	21	8.44E-02	4.44E-02	0	10.3923	10.3923	10.3923	0	0	1	-360	360
17	5	8.44E-02	4.44E-02	0	10.3923	10.3923	10.3923	0	0	1	-360	360
18	6	8.44E-02	4.44E-02	0	10.3923	10.3923	10.3923	0	0	1	-360	360
19	7	8.44E-02	4.44E-02	0	10.3923	10.3923	10.3923	0	0	1	-360	360
20	8	8.44E-02	4.44E-02	0	10.3923	10.3923	10.3923	0	0	1	-360	360
21	9	8.44E-02	4.44E-02	0	10.3923	10.3923	10.3923	0	0	1	-360	360
];
